* RL Circuit Transient Analysis
Iplus 1 0 PULSE(0 1m 1m 1u 1u 10m 20m) ; root
Iin 1 0                             ; input
R_In 1 0 1k
Ivar 1 0
R_Ivar 1 0 2k
R1 1 0                              ; output:I
L1 1 0 1m
.tran 0 50m 0 10u                   ; Transient Analysis: 50ms
.end
